# freq rb3lyp scrf=check guess=tcheck chkbas genchk

aj

0 1
 Pd                -1.65647500   -0.62415500   -0.45863000
 N                 -1.00549000    1.29641900   -0.48068100
 C                 -1.93735100    2.17460400   -0.67091300
 C                 -3.37409900    1.77784600   -0.81308400
 N                 -3.35484800    0.33024500   -1.03612900
 C                 -4.22748200   -0.29414100   -1.86115400
 O                 -4.11937500   -1.50405800   -2.13590900
 N                  0.06998200   -1.61626600    0.08557800
 C                 -0.02827600   -2.77634800    0.81454800
 C                 -1.43642200   -3.06658900    1.32261500
 C                 -2.58957900   -2.79574800    0.31909600
 H                 -2.46194000   -2.24529600   -0.67123500
 O                  0.91706400   -3.52510000    1.06223300
 H                 -3.50403700   -2.43684600    0.79069700
 H                 -1.53961700   -2.54960700    2.28363600
 C                 -2.62414100   -4.31997200   -0.00012300
 H                 -2.04263500   -4.55872400   -0.89479700
 H                 -3.61628700   -4.76882000   -0.08603800
 H                 -3.78144500    2.31787000   -1.67527500
 C                 -4.20472400    2.19187900    0.44988600
 O                 -1.55957800    3.44602200   -0.67604300
 C                 -5.36909900    0.51156700   -2.47553100
 C                  1.33070000   -1.18861000   -0.31955000
 C                 -0.08822800    3.44663700   -0.57904600
 C                  0.27002800    1.99085500   -0.19786800
 H                  0.29666400    3.74413900   -1.55662100
 H                  0.18970000    4.17980400    0.17776700
 H                  1.04282700    1.58977200   -0.85344800
 C                  0.65751700    1.80822100    1.27279100
 H                  0.51809300    0.75575400    1.53932000
 H                 -0.05772200    2.36844000    1.88981200
 C                 -4.47176500    3.70837700    0.48080100
 H                 -3.52874200    4.24345200    0.64299100
 H                 -4.83744500    4.02009600   -0.50654600
 C                 -5.49073400    4.12891800    1.54497800
 H                 -5.12281000    3.94346600    2.55920500
 H                 -5.71296100    5.19868600    1.46763400
 H                 -6.43421400    3.58253900    1.42641200
 H                 -4.98458500    1.19489200   -3.24168800
 H                 -6.05924200   -0.18692000   -2.95051400
 H                 -5.91388500    1.10953400   -1.73951400
 C                 -1.81263900   -4.56876300    1.30140200
 H                 -2.45169900   -4.84556400    2.14403000
 H                 -0.96801800   -5.25908600    1.24108800
 C                  1.59061600   -0.85958900   -1.65957500
 C                  2.37507200   -0.95549100    0.58596400
 C                  2.79072400   -0.28869800   -2.05186200
 C                  3.59168600   -0.41178900    0.19266100
 C                  3.82510800   -0.05726500   -1.13854300
 F                  0.63259700   -1.04884500   -2.58983500
 F                  2.94997800    0.05402100   -3.34189700
 F                  2.16965100   -1.15628700    1.89748000
 F                  4.50166800   -0.18411400    1.14760300
 C                  5.05082100    0.67692200   -1.60555900
 F                  5.58554300    0.10772000   -2.70837700
 F                  4.74169700    1.95707900   -1.94291400
 F                  6.01831500    0.73595200   -0.67578300
 C                  2.07562200    2.21723400    1.62814000
 C                  2.53747400    1.94765600    2.92669900
 C                  2.95966900    2.81667700    0.72082900
 C                  3.83795200    2.27164400    3.30911400
 H                  1.86830300    1.47025900    3.63855500
 C                  4.27026600    3.13006200    1.09751300
 H                  2.65404000    3.02415900   -0.29962000
 C                  4.71262700    2.86400400    2.39261900
 H                  4.17318200    2.05048100    4.31879800
 H                  4.94371200    3.56899800    0.36751700
 H                  5.73083300    3.10528300    2.68428800
 C                 -3.57853300    1.66744200    1.74763500
 H                 -4.26652700    1.79070200    2.58832800
 H                 -3.33934000    0.60264000    1.66810200
 H                 -2.65484200    2.20551700    1.99351300
 H                 -5.16760600    1.68452200    0.30974000

